/*--------------------------------*- C++ -*----------------------------------*\
| =========                 |                                                 |
| \\      /  F ield         | OpenFOAM: The Open Source CFD Toolbox           |
|  \\    /   O peration     | Version:  v2006                                 |
|   \\  /    A nd           | Website:  www.openfoam.com                      |
|    \\/     M anipulation  |                                                 |
\*---------------------------------------------------------------------------*/
FoamFile
{
    version     2.0;
    format      ascii;
    class       dictionary;
    location    "constant/faMesh";
    object      faMeshDefinition;
}
// * * * * * * * * * * * * * * * * * * * * * * * * * * * * * * * * * * * * * //

polyMeshPatches  1( terrain );

boundary
{
    outlets
    {
        type                patch;
        ownerPolyPatch      terrain;
        neighbourPolyPatch  outlets;
    }

    walls
    {
        type                patch;
        ownerPolyPatch      terrain;
        neighbourPolyPatch  walls;
    }

    inlet
    {
        type                patch;
        ownerPolyPatch      terrain;
        neighbourPolyPatch  inlet;
    }

}

// ************************************************************************** //
