/*--------------------------------*- C++ -*----------------------------------*\
| =========                 |                                                 |
| \\      /  F ield         | OpenFOAM: The Open Source CFD Toolbox           |
|  \\    /   O peration     | Version:  avalanche                             |
|   \\  /    A nd           | https://develop.openfoam.com/Community/avalanche|
|    \\/     M anipulation  |                                                 |
\*---------------------------------------------------------------------------*/
FoamFile
{
    version     2.0;
    format      ascii;
    class       dictionary;
    object      releaseArea;
}
// * * * * * * * * * * * * * * * * * * * * * * * * * * * * * * * * * * * * * //

fields
{
    h
    {
        default default [0 1 0 0 0 0 0] 0;
        regions
        (
            releaseArea1
            {
                type polygon;
                filltype constant;
                offset (0 0 0);
                vertices
                (
                    ( 4 -1.5  0)
                    ( 4  1.5  0)
                    ( 2  1.5  0)
                    ( 2 -1.5  0)
                );
                value 0.1;
            }
        );
    }

    hentrain
    {
        default default [0 1 0 0 0 0 0] 0.1;
        regions
        (
            releaseArea1
            {
                type polygon;
                filltype constant;
                offset (0 0 0);
                vertices
                (
                    ( 4 -1.5  0)
                    ( 4  1.5  0)
                    ( 2  1.5  0)
                    ( 2 -1.5  0)
                );
                value 0;
            }
        );
    }
}

// ************************************************************************* //
