/*--------------------------------*- C++ -*----------------------------------*\
| =========                 |                                                 |
| \\      /  F ield         | OpenFOAM: The Open Source CFD Toolbox           |
|  \\    /   O peration     | Version:  v2006                                 |
|   \\  /    A nd           | Website:  www.openfoam.com                      |
|    \\/     M anipulation  |                                                 |
\*---------------------------------------------------------------------------*/
FoamFile
{
    version     2.0;
    format      ascii;
    class       areaVectorField;
    location    "0";
    object      Us;
}
// * * * * * * * * * * * * * * * * * * * * * * * * * * * * * * * * * * * * * //

dimensions          [0 1 -1 0 0 0 0];

internalField       uniform (0 0 0);

boundaryField
{
    inlet
    {
        type            edgeNormalFixedValue;
        value           uniform (-0.6 0 0);
        refValue        uniform -1;
    }
    outlets
    {
        type            zeroGradient;
        value           $internalField;
    }
    walls
    {
        type            fixedValue;
        value           uniform (0 0 0);
    }
}


// * * * * * * * * * * * * * * * * * * * * * * * * * * * * * * * * * * * * * //
